LAMMPS (15 Sep 2022)
# 3D WCA system, random initial configuration

# Parameter settings
variable initial_temperature equal 3.0
variable final_temperature equal 0.1
variable dt equal 0.01
variable tau equal 100*0.01
variable thermo_time equal 1000       # Ensure frequent DCD output for 3D case
variable equil_steps equal 50000
variable run_steps equal 100000

units           lj
atom_style      atomic
dimension       3                    # Change dimension to 3 for 3D simulation

# Define lattice and region
lattice         fcc 1.3
Lattice spacing in x,y,z = 1.4544726 1.4544726 1.4544726
region          box block 0 8 0 8 0 8   # Set the region to be sized 8x8x8
create_box      1 box
Created orthogonal box = (0 0 0) to (11.635781 11.635781 11.635781)
create_atoms    1 box
Created 2048 atoms
mass 1 1.0

# Set initial velocity
velocity all create 3 12345

# Define interactions
pair_style      lj/cut 1.0
pair_coeff      1 1 10.0 0.89089871814 1.0
pair_modify shift yes

# Simulation parameters
timestep        0.01
thermo          1000

# High-temperature equilibration phase
fix 1 all nvt temp 3 3 1
run 50000
Generated 0 of 0 mixed pair_coeff terms from geometric mixing rule
Step          Temp          E_pair         E_mol          TotEng         Press
0   3              0              0              4.4978027      3.8980957
Averages over the last 26 of 51 rows, steps 25000 to 50000:
Temp E_pair E_mol TotEng Press
3.01703 2.83848 0 7.36182 50.9731
Loop time of 26.1176 on 1 procs for 50000 steps with 2048 atoms

unfix 1

# Dump settings for trajectory output
# Output the trajectory information for cooling phase in DCD format, unique file for each density
dump            1 all dcd 1000 3dWCA_density_1.3.dcd
dump_modify     1 unwrap yes

# Cooling phase, gradually lowering temperature to final_temperature
fix 1 all nvt temp 3 0.1 1
run 100000
Generated 0 of 0 mixed pair_coeff terms from geometric mixing rule
Step          Temp          E_pair         E_mol          TotEng         Press
50000   2.996414       2.9000874      0              7.3925138      51.783005
Averages over the last 51 of 101 rows, steps 100000 to 150000:
Temp E_pair E_mol TotEng Press
0.827034 0.665644 0 1.90559 18.0474
Loop time of 38.611 on 1 procs for 100000 steps with 2048 atoms

unfix 1
undump 1
