LAMMPS (15 Sep 2022)
# 2D WCA system with Li atoms, random initial configuration

# Parameter settings
variable density equal 0.5
variable initial_temperature equal 3.0
variable final_temperature equal 0.1
variable dt equal 0.01
variable tau equal 100*0.01
variable thermo_time equal 50000*0.01
variable equil_steps equal 50000
variable run_steps equal 100000

units           lj
atom_style      atomic
dimension       2

# Define lattice and region
lattice         sq 0.5
Lattice spacing in x,y,z = 1.4142136 1.4142136 1.4142136
region          box block 0 20 0 20 -0.5 0.5
create_box      1 box
Created orthogonal box = (0 0 -0.70710678) to (28.284271 28.284271 0.70710678)
create_atoms    1 box
Created 400 atoms
mass 1 6.941  # Set mass for lithium (Li) atoms

# Set initial velocity
velocity all create 3 12345

# Define interactions
pair_style      lj/cut 1.0
pair_coeff      1 1 1.0 1.0 2.5  # Define Lennard-Jones parameters for Li-Li interactions
pair_modify shift yes

# Simulation parameters
timestep        0.01
thermo          500

# High-temperature equilibration phase
fix 1 all nvt temp 3 3 1
run 50000
Generated 0 of 0 mixed pair_coeff terms from geometric mixing rule
Step          Temp          E_pair         E_mol          TotEng         Press
0   3             -0.93277931     0              2.0597207      0.18960937
Averages over the last 51 of 101 rows, steps 25000 to 50000:
Temp E_pair E_mol TotEng Press
3.01392 -0.864269 0 2.14211 3.04893
Loop time of 2.34798 on 1 procs for 50000 steps with 400 atoms

unfix 1

# Dump settings for trajectory output
# Output only the trajectory information for lithium atoms in DCD format
dump            1 all dcd 500 2dWCA_Li_T0.1_d0.5_N100000.dcd

# Cooling phase, gradually lowering temperature to final_temperature
fix 1 all nvt temp 3 0.1 1
run 100000
Generated 0 of 0 mixed pair_coeff terms from geometric mixing rule
Step          Temp          E_pair         E_mol          TotEng         Press
50000   2.7661361     -0.80061975     0              1.958601       3.1156
Averages over the last 101 of 201 rows, steps 100000 to 150000:
Temp E_pair E_mol TotEng Press
0.831739 -1.52229 0 -0.692633 0.471407
Loop time of 4.35081 on 1 procs for 100000 steps with 400 atoms

unfix 1
undump 1
