LAMMPS (15 Sep 2022)
# 2D WCA system, random initial configuration

# Parameter settings
variable initial_temperature equal 3.0
variable final_temperature equal 0.1
variable dt equal 0.01
variable tau equal 100*0.01
variable thermo_time equal 1000       # Set to a smaller interval to ensure frequent DCD output
variable equil_steps equal 50000
variable run_steps equal 100000

units           lj
atom_style      atomic
dimension       2

# Define lattice and region
lattice         sq 0.9
Lattice spacing in x,y,z = 1.0540926 1.0540926 1.0540926
region          box block 0 20 0 20 -0.5 0.5
create_box      1 box
Created orthogonal box = (0 0 -0.52704628) to (21.081851 21.081851 0.52704628)
create_atoms    1 box
Created 400 atoms
mass 1 1.0  # Set mass for the original atom type

# Set initial velocity
velocity all create 3 12345

# Define interactions
pair_style      lj/cut 1.0
pair_coeff      1 1 10.0 0.89089871814 1.0  # Original Lennard-Jones parameters
pair_modify shift yes

# Simulation parameters
timestep        0.01
thermo          1000

# High-temperature equilibration phase
fix 1 all nvt temp 3 3 1
run 50000
Generated 0 of 0 mixed pair_coeff terms from geometric mixing rule
Step          Temp          E_pair         E_mol          TotEng         Press
0   3              0              0              2.9925         2.69325
Averages over the last 26 of 51 rows, steps 25000 to 50000:
Temp E_pair E_mol TotEng Press
3.09096 1.01191 0 4.09514 19.5139
Loop time of 1.90909 on 1 procs for 50000 steps with 400 atoms

unfix 1

# Dump settings for trajectory output
# Output the trajectory information for cooling phase in DCD format, unique file for each density
dump            1 all dcd 1000 output_density_0.9.dcd
dump_modify     1 unwrap yes

# Cooling phase, gradually lowering temperature to final_temperature
fix 1 all nvt temp 3 0.1 1
run 100000
Generated 0 of 0 mixed pair_coeff terms from geometric mixing rule
Step          Temp          E_pair         E_mol          TotEng         Press
50000   3.0984576      1.0248756      0              4.115587       19.825633
Averages over the last 51 of 101 rows, steps 100000 to 150000:
Temp E_pair E_mol TotEng Press
0.833107 0.219078 0 1.0501 6.25627
Loop time of 3.12551 on 1 procs for 100000 steps with 400 atoms

unfix 1
undump 1
