LAMMPS (15 Sep 2022)
# 2d WCA system, random initial configuration

# Parameter settings
variable density equal 0.5
variable initial_temperature equal 3.0
variable final_temperature equal 0.1
variable dt equal 0.01
variable tau equal 100*0.01
variable equil_steps equal 50000
variable cool_steps equal 500000  # Cooling process steps
variable thermo_time equal 5000

units           lj
atom_style      atomic
dimension       2
boundary        p p p  # Set periodic in all dimensions for 2D simulation

# Define the system
lattice         sq 0.5
Lattice spacing in x,y,z = 1.4142136 1.4142136 1.4142136
region          box block 0 20 0 20 0 0.1  # Define a thin z dimension to mimic 2D
create_box      1 box
Created orthogonal box = (0 0 0) to (28.284271 28.284271 0.14142136)
create_atoms    1 box
Created 400 atoms
mass 1 1.0

# Set initial velocity
velocity all create 3 12345

# Define interactions
pair_style      lj/cut 1.0
pair_coeff      1 1 10.0 0.89089871814 1.0
pair_modify shift yes

# Output settings for thermo and DCD during cooling phase
thermo          5000
thermo_style    custom step atoms temp etotal press

# High-temperature equilibration phase
fix 1 all nvt temp 3 3 1
run 50000
Generated 0 of 0 mixed pair_coeff terms from geometric mixing rule
Step        Atoms         Temp          TotEng         Press
0         400   3              2.9925         1.49625
Averages over the last 6 of 11 rows, steps 25000 to 50000:
Atoms Temp TotEng Press
400 3.02326 3.23774 3.59131
Loop time of 0.975406 on 1 procs for 50000 steps with 400 atoms

# Clear equilibration fix and start DCD dump for cooling phase only
unfix 1
dump            2 all dcd 1000 output_cooling.dcd  # DCD output only during cooling

# Cooling phase, gradually lowering temperature to final_temperature
fix 2 all nvt temp 3 0.1 1
run 500000
Generated 0 of 0 mixed pair_coeff terms from geometric mixing rule
Step        Atoms         Temp          TotEng         Press
50000         400   2.9043373      3.0984866      3.5117536
Averages over the last 51 of 101 rows, steps 300000 to 550000:
Atoms Temp TotEng Press
400 0.830795 0.871412 1.03293
Loop time of 8.39816 on 1 procs for 500000 steps with 400 atoms

# Clear cooling fix and dump
unfix 2
undump 2
